Version 4
SHEET 1 880 680
WIRE -1376 -272 -1376 -384
WIRE -640 -272 -912 -272
WIRE -208 -272 -640 -272
WIRE -48 -272 -208 -272
WIRE 96 -272 -48 -272
WIRE 368 -272 96 -272
WIRE -48 -256 -48 -272
WIRE -208 -240 -208 -272
WIRE -912 -224 -912 -272
WIRE -640 -224 -640 -272
WIRE -912 -96 -912 -144
WIRE -640 -96 -640 -144
WIRE -368 -96 -640 -96
WIRE -272 -96 -304 -96
WIRE -912 -80 -912 -96
WIRE -784 -80 -912 -80
WIRE -464 -80 -784 -80
WIRE -48 -80 -48 -176
WIRE 96 -80 96 -272
WIRE -464 -48 -464 -80
WIRE -1376 0 -1440 0
WIRE -1344 0 -1376 0
WIRE -1168 0 -1264 0
WIRE -1120 0 -1168 0
WIRE -912 0 -912 -80
WIRE -912 0 -928 0
WIRE -640 16 -640 -96
WIRE -272 32 -272 -96
WIRE -272 32 -368 32
WIRE -208 32 -208 -160
WIRE -208 32 -224 32
WIRE -48 32 -48 -16
WIRE -48 32 -208 32
WIRE 368 48 368 -272
WIRE 368 48 320 48
WIRE 384 48 368 48
WIRE 496 48 448 48
WIRE -784 64 -784 0
WIRE -704 64 -784 64
WIRE -464 80 -464 32
WIRE -432 80 -464 80
WIRE -272 80 -272 32
WIRE -48 80 -48 32
WIRE -1440 96 -1440 80
WIRE -1376 96 -1440 96
WIRE -1120 96 -1376 96
WIRE -912 96 -928 96
WIRE -1120 112 -1120 96
WIRE -1376 128 -1376 96
WIRE -784 160 -784 64
WIRE -208 160 -208 128
WIRE -96 160 -208 160
WIRE 256 160 256 48
WIRE 256 160 176 160
WIRE 368 160 320 160
WIRE 384 160 368 160
WIRE 496 160 496 48
WIRE 496 160 448 160
WIRE -912 176 -912 96
WIRE -464 176 -464 80
WIRE -272 176 -272 80
WIRE -208 176 -208 160
WIRE 176 176 176 160
WIRE 496 176 496 160
WIRE -912 272 -912 240
WIRE -784 272 -784 240
WIRE -784 272 -912 272
WIRE -640 272 -640 112
WIRE -640 272 -784 272
WIRE -464 272 -464 256
WIRE -464 272 -640 272
WIRE -368 272 -368 128
WIRE -368 272 -464 272
WIRE -272 272 -272 256
WIRE -272 272 -368 272
WIRE -208 272 -208 256
WIRE -208 272 -272 272
WIRE -48 272 -48 144
WIRE -48 272 -208 272
WIRE 96 272 96 -16
WIRE 96 272 -48 272
WIRE 368 272 368 160
WIRE 368 272 96 272
WIRE -96 288 -96 160
WIRE 96 288 96 272
WIRE 96 288 64 288
WIRE 96 304 96 288
WIRE 176 304 176 256
WIRE 64 320 64 288
WIRE 496 320 496 256
WIRE -1440 416 -1472 416
WIRE -1328 416 -1360 416
WIRE -1328 448 -1328 416
WIRE -1472 464 -1472 416
FLAG 496 320 11
FLAG 176 304 10
FLAG -96 288 12
FLAG 96 304 14
FLAG -1376 -464 10
FLAG -1376 -272 11
FLAG 64 320 0
FLAG -1168 0 Input
FLAG -912 -96 Out
FLAG -1376 128 COM
FLAG -1472 464 COM
FLAG -1328 448 0
FLAG -1376 0 before_input
SYMBOL diode 448 32 R90
WINDOW 0 0 32 VBottom 2
WINDOW 3 32 32 VTop 2
SYMATTR InstName D1
SYMBOL diode 320 144 R90
WINDOW 0 0 32 VBottom 2
WINDOW 3 32 32 VTop 2
SYMATTR InstName D2
SYMBOL diode 256 64 R270
WINDOW 0 32 32 VTop 2
WINDOW 3 0 32 VBottom 2
SYMATTR InstName D3
SYMBOL diode 384 176 R270
WINDOW 0 32 32 VTop 2
WINDOW 3 0 32 VBottom 2
SYMATTR InstName D4
SYMBOL res 160 160 R0
SYMATTR InstName R1
SYMATTR Value 2.2
SYMBOL res 480 160 R0
SYMATTR InstName R2
SYMATTR Value 2.2
SYMBOL cap 80 -80 R0
SYMATTR InstName C1
SYMATTR Value 220µ
SYMBOL res -64 -272 R0
SYMATTR InstName R3
SYMATTR Value 1k
SYMBOL cap -64 80 R0
SYMATTR InstName C2
SYMATTR Value 4.7µ
SYMBOL res -224 160 R0
SYMATTR InstName R4
SYMATTR Value 100
SYMBOL npn -272 32 R0
SYMATTR InstName Q1
SYMBOL res -224 -256 R0
SYMATTR InstName R5
SYMATTR Value 40
SYMBOL LED -64 -80 R0
SYMATTR InstName D6
SYMBOL voltage -1376 -480 R0
WINDOW 123 0 0 Left 0
WINDOW 39 0 0 Left 0
SYMATTR InstName V1
SYMATTR Value SINE(0 16 60 0 0 0 10)
SYMBOL res -656 -240 R0
SYMATTR InstName R6
SYMATTR Value 470
SYMBOL diode -368 -80 R270
WINDOW 0 32 32 VTop 2
WINDOW 3 -13 32 VBottom 2
SYMATTR InstName D5
SYMBOL res -288 160 R0
SYMATTR InstName R7
SYMATTR Value 4.7k
SYMBOL npn -432 32 R0
SYMATTR InstName Q2
SYMBOL res -480 160 R0
SYMATTR InstName R8
SYMATTR Value 4.7k
SYMBOL res -480 -64 R0
SYMATTR InstName R9
SYMATTR Value 4.7k
SYMBOL npn -704 16 R0
SYMATTR InstName Q3
SYMBOL res -800 144 R0
SYMATTR InstName R10
SYMATTR Value 4.7k
SYMBOL res -800 -96 R0
SYMATTR InstName R11
SYMATTR Value 4.7k
SYMBOL Optos\\PC817A -1024 48 R0
SYMATTR InstName U1
SYMBOL diode -928 176 R0
SYMATTR InstName D7
SYMBOL res -928 -240 R0
SYMATTR InstName R12
SYMATTR Value 4.7k
SYMBOL voltage -1440 -16 R0
WINDOW 3 -111 245 Left 2
WINDOW 123 0 0 Left 0
WINDOW 39 0 0 Left 0
SYMATTR InstName V2
SYMATTR Value PULSE(0 4 0 .0001 .0001 .008 .01666 10)
SYMBOL res -1344 400 R90
WINDOW 0 0 56 VBottom 2
WINDOW 3 32 56 VTop 2
SYMATTR InstName R13
SYMATTR Value 100Mega
SYMBOL res -1248 -16 R90
WINDOW 0 0 56 VBottom 2
WINDOW 3 32 56 VTop 2
SYMATTR InstName R14
SYMATTR Value 300
TEXT -738 398 Left 2 !.tran .6s
TEXT -728 -720 Left 2 ;Blue Module (Input pulse converted into output across SCRs gate and cathode)
