Version 4
SHEET 1 880 680
WIRE 112 48 112 0
WIRE 704 64 512 64
WIRE -208 80 -240 80
WIRE 512 144 512 64
WIRE 576 144 512 144
WIRE 704 160 704 64
WIRE 704 160 640 160
WIRE 576 176 128 176
WIRE -320 192 -320 80
WIRE -208 192 -208 80
WIRE 128 240 128 176
WIRE 608 256 608 192
FLAG 112 -80 12V
FLAG 608 128 12V
FLAG -320 192 0
FLAG -208 192 COM
FLAG 112 48 COM
FLAG 128 320 COM
FLAG 608 256 COM
SYMBOL voltage 112 -96 R0
WINDOW 123 0 0 Left 0
WINDOW 39 24 124 Left 2
SYMATTR SpiceLine Rser=3m
SYMATTR InstName V1
SYMATTR Value 12
SYMBOL voltage 128 224 R0
WINDOW 123 0 0 Left 0
WINDOW 39 0 0 Left 0
SYMATTR InstName V2
SYMATTR Value SINE(2 1 100k)
SYMBOL res -224 64 R90
WINDOW 0 0 56 VBottom 2
WINDOW 3 32 56 VTop 2
SYMATTR InstName R1
SYMATTR Value 1Mega
SYMBOL OpAmps\\UniversalOpAmp 608 160 R0
SYMATTR InstName U2
TEXT 78 344 Left 2 !.tran 50u
