Version 4
SHEET 1 1152 680
WIRE 64 32 -64 32
WIRE 128 32 64 32
WIRE 320 32 320 -240
WIRE 816 80 816 48
WIRE -64 128 -64 112
WIRE 16 128 -64 128
WIRE 128 128 96 128
WIRE -64 160 -64 128
WIRE 320 192 320 128
WIRE 320 224 320 192
WIRE 640 224 512 224
WIRE 832 224 720 224
WIRE 1072 224 832 224
WIRE 1072 272 1072 224
WIRE 832 320 832 224
WIRE -32 384 -64 384
WIRE 320 384 320 304
WIRE 832 416 832 384
WIRE 1072 416 1072 352
WIRE -144 496 -144 384
WIRE -32 496 -32 384
FLAG 64 32 PWM
FLAG -64 160 0
FLAG 320 384 COM
FLAG -144 496 0
FLAG -32 496 COM
FLAG 320 -240 12V
FLAG 816 -32 12V
FLAG 816 80 COM
FLAG 320 192 Vout
FLAG 832 416 COM
FLAG 832 224 Filtered_PWM
FLAG 1072 416 COM
FLAG 512 224 Vout
SYMBOL voltage -64 16 R0
WINDOW 3 -427 116 Left 2
WINDOW 123 0 0 Left 0
WINDOW 39 0 0 Left 0
SYMATTR Value PULSE(0 3 0 10p 10p 1u 2u 20)
SYMATTR InstName V1
SYMBOL Optos\\PC817A 224 80 R0
SYMATTR InstName U1
SYMBOL res 112 112 R90
WINDOW 0 0 56 VBottom 2
WINDOW 3 32 56 VTop 2
SYMATTR InstName R1
SYMATTR Value 5
SYMBOL res -48 368 R90
WINDOW 0 0 56 VBottom 2
WINDOW 3 32 56 VTop 2
SYMATTR InstName R2
SYMATTR Value 1Mega
SYMBOL res 304 208 R0
SYMATTR InstName R3
SYMATTR Value 1k
SYMBOL voltage 816 -48 R0
WINDOW 123 0 0 Left 0
WINDOW 39 24 124 Left 2
SYMATTR SpiceLine Rser=3m
SYMATTR InstName V2
SYMATTR Value 12
SYMBOL res 736 208 R90
WINDOW 0 0 56 VBottom 2
WINDOW 3 32 56 VTop 2
SYMATTR InstName R4
SYMATTR Value 53
SYMBOL cap 816 320 R0
SYMATTR InstName C1
SYMATTR Value .1µ
SYMBOL res 1056 256 R0
SYMATTR InstName R5
SYMATTR Value 500k
TEXT -96 216 Left 2 !.tran 50u
