Version 4
SHEET 1 1636 680
WIRE 1328 0 1120 0
WIRE 336 48 160 48
WIRE 448 48 336 48
WIRE 608 48 528 48
WIRE 768 48 608 48
WIRE 448 64 448 48
WIRE 1328 80 1328 0
WIRE 608 96 608 48
WIRE 1120 96 1120 0
WIRE 160 128 160 48
WIRE 1328 192 1328 160
WIRE 1488 192 1328 192
WIRE 1616 192 1568 192
WIRE 608 224 608 160
WIRE 1328 240 1328 192
WIRE 1120 320 1120 176
WIRE 1328 320 1120 320
WIRE 1616 320 1616 192
WIRE 1616 320 1328 320
WIRE 1616 336 1616 320
FLAG 160 208 0
FLAG 336 48 PWM
FLAG 608 224 0
FLAG 608 48 Filtered_PWM
FLAG 768 128 0
FLAG 1616 336 0
SYMBOL voltage 160 112 R0
WINDOW 123 0 0 Left 0
WINDOW 39 0 0 Left 0
SYMATTR InstName V1
SYMATTR Value PULSE(0 12 0 10p 10p 1u 2u 20)
SYMBOL res 544 32 R90
WINDOW 0 0 56 VBottom 2
WINDOW 3 32 56 VTop 2
SYMATTR InstName R1
SYMATTR Value 53
SYMBOL cap 592 96 R0
SYMATTR InstName C1
SYMATTR Value .1µ
SYMBOL res 752 32 R0
SYMATTR InstName R2
SYMATTR Value 500k
SYMBOL voltage 1120 80 R0
WINDOW 123 0 0 Left 0
WINDOW 39 0 0 Left 0
SYMATTR InstName V2
SYMATTR Value 12
SYMBOL res 1312 64 R0
SYMATTR InstName R3
SYMATTR Value 400k
SYMBOL res 1312 224 R0
SYMATTR InstName R4
SYMATTR Value 100k
SYMBOL res 1584 176 R90
WINDOW 0 0 56 VBottom 2
WINDOW 3 32 56 VTop 2
SYMATTR InstName R5
SYMATTR Value 1k
TEXT 126 232 Left 2 !.tran 100u
