Version 4
SHEET 1 1980 680
WIRE 240 -64 -112 -64
WIRE 240 16 240 0
WIRE 192 32 192 0
WIRE 192 32 16 32
WIRE -112 48 -112 -64
WIRE 240 48 240 16
WIRE -112 160 -112 128
WIRE 16 160 16 112
WIRE 16 160 -112 160
WIRE 96 160 16 160
WIRE 240 160 240 128
WIRE 240 160 96 160
WIRE 96 192 96 160
FLAG 240 16 Wave
FLAG 96 192 0
SYMBOL Misc\\SCR 224 -64 R0
SYMATTR InstName U1
SYMATTR Value TN6050HP-12
SYMBOL voltage 16 16 R0
WINDOW 3 24 96 Invisible 2
WINDOW 123 0 0 Left 0
WINDOW 39 0 0 Left 0
SYMATTR Value 20
SYMATTR InstName V1
SYMBOL voltage -112 32 R0
WINDOW 0 24 96 Left 2
WINDOW 3 -246 -12 Left 2
WINDOW 123 0 0 Left 0
WINDOW 39 0 0 Left 0
SYMATTR InstName V2
SYMATTR Value SINE(0 200 60)
SYMBOL res 224 32 R0
SYMATTR InstName R1
SYMATTR Value 100
TEXT -128 216 Left 2 !.tran .1
TEXT 496 -216 Left 2 !.inc C:\\Users\\aaron\\OneDrive\\Documents\\LTspiceXVII\\lib\\sym\\st_high-temperature_scr_pspice\\st_high-temperature_scr.lib
